packages/bdgd2opendss/bdgd2opendss-1.0.1.tar.gz/bdgd2opendss-1.0.1/tests/dss_models_output/sub__SE001/17_SE001_1/CargasMT_DU12_202312598_17_SE001_1_------1-----.dss
New "Load.MT_65146_M1" bus1="651461.1.2.3.4" phases=3 conn=Delta model=2 kv=23.100000000 kw = 16.963499 pf=0.92 status=variable vmaxpu=1.5 vminpu=0.6 daily="MT6_DU"  
New "Load.MT_65146_M2" bus1="651461.1.2.3.4" phases=3 conn=Delta model=3 kv=23.100000000 kw = 16.963499 pf=0.92 status=variable vmaxpu=1.5 vminpu=0.6 daily="MT6_DU" 
New "Load.MT_20050_M1" bus1="200501.1.2.3.4" phases=3 conn=Delta model=2 kv=23.100000000 kw = 89.241657 pf=0.92 status=variable vmaxpu=1.5 vminpu=0.6 daily="MT1_DU"  
New "Load.MT_20050_M2" bus1="200501.1.2.3.4" phases=3 conn=Delta model=3 kv=23.100000000 kw = 89.241657 pf=0.92 status=variable vmaxpu=1.5 vminpu=0.6 daily="MT1_DU" 
New "Load.MT_62502_M1" bus1="625021.1.2.3.4" phases=3 conn=Delta model=2 kv=23.100000000 kw = 4.4813495 pf=0.92 status=variable vmaxpu=1.5 vminpu=0.6 daily="MT3_DU"  
New "Load.MT_62502_M2" bus1="625021.1.2.3.4" phases=3 conn=Delta model=3 kv=23.100000000 kw = 4.4813495 pf=0.92 status=variable vmaxpu=1.5 vminpu=0.6 daily="MT3_DU" 
New "Load.MT_32932_M1" bus1="329321.1.2.3.4" phases=3 conn=Delta model=2 kv=23.100000000 kw = 122.8333225 pf=0.92 status=variable vmaxpu=1.5 vminpu=0.6 daily="MT1_DU"  
New "Load.MT_32932_M2" bus1="329321.1.2.3.4" phases=3 conn=Delta model=3 kv=23.100000000 kw = 122.8333225 pf=0.92 status=variable vmaxpu=1.5 vminpu=0.6 daily="MT1_DU" 
New "Load.MT_77971_1_M1" bus1="779901.1.2.3.4" phases=3 conn=Delta model=2 kv=23.100000000 kw = 2.147925 pf=0.92 status=variable vmaxpu=1.5 vminpu=0.6 daily="MT3_DU"  
New "Load.MT_77971_1_M2" bus1="779901.1.2.3.4" phases=3 conn=Delta model=3 kv=23.100000000 kw = 2.147925 pf=0.92 status=variable vmaxpu=1.5 vminpu=0.6 daily="MT3_DU" 
New "Load.MT_77971_2_M1" bus1="779901.1.2.3.4" phases=3 conn=Delta model=2 kv=23.100000000 kw = 7.0384735 pf=0.92 status=variable vmaxpu=1.5 vminpu=0.6 daily="MT2_DU"  
New "Load.MT_77971_2_M2" bus1="779901.1.2.3.4" phases=3 conn=Delta model=3 kv=23.100000000 kw = 7.0384735 pf=0.92 status=variable vmaxpu=1.5 vminpu=0.6 daily="MT2_DU" 
